src/tests/data/grids/ucte/IEEE 118 bus.uct
##C 2007.05.01
*******************************************************
	Created by Transmission Network Analyzer_FORsee (TNA_FORsee). Made by EKC Belgrade & DMS Group Novi Sad, 2012.
	132  nodes
	184  lines
	9  transformers
	9  transformer regulations
	0  tap changers
*******************************************************

##N
##ZIEEE11
RIVERS3E 1            0 2 131.79      51      27       0   3.104   10000  -10000       5     -15     0       0       0       0  
POKAGO3  2            0 0 134.05      20       9       0       0       0       0       0       0     0       0       0       0  
HICKRY3K 3            0 0 133.54      39      10       0       0       0       0       0       0     0       0       0       0  
NWCARL3L 4            0 2 137.72      39      12       0  15.005   10000  -10000     300    -300     0       0       0       0  
5     3  5            0 0 138.27       0       0       0       0       0       0       0       0     0       0       0       0  
KANKAK3E 6            0 2 136.62      52      22       0  -15.93   10000  -10000      13     -50     0       0       0       0  
JACKSN3D 7            0 0 136.53      19       2       0       0       0       0       0       0     0       0       0       0  
8     3  8            0 2 140.07      28       0       0 -62.758   10000  -10000     300    -300     0       0       0       0  
BEQUIN3  9            0 0 143.92       0       0       0       0       0       0       0       0     0       0       0       0  
10    3  10           0 2  144.9       0       0    -450  51.042   10000  -10000     147    -200     0       0       0       0  
SOUTHB3D 11           0 0 135.94      70      23       0       0       0       0       0       0     0       0       0       0  
TWINBR3H 12           0 2 136.62      47      10     -85 -91.274   10000  -10000      35    -120     0       0       0       0  
CONCOR3  13           0 0 133.63      34      16       0       0       0       0       0       0     0       0       0       0  
GOSHEN3T 14           0 0 135.74      14       1       0       0       0       0       0       0     0       0       0       0  
FTWAYN3  15           0 2 133.86      90      30       0   -3.06   10000  -10000      10     -30     0       0       0       0  
16    3  16           0 0 135.78      25      10       0       0       0       0       0       0     0       0       0       0  
SORENS3N 17           0 0 137.33      11       3       0       0       0       0       0       0     0       0       0       0  
MCKINL3Y 18           0 2 134.27      60      34       0 -25.532   10000  -10000      16     -50     0       0       0       0  
LINCOL3  19           0 2 132.76      45      25       0       8   10000  -10000       8     -24     0       0       0       0  
20    3  20           0 0 132.21      18       3       0       0       0       0       0       0     0       0       0       0  
21    3  21           0 0 132.29      14       8       0       0       0       0       0       0     0       0       0       0  
RANDOL3H 22           0 0 133.81      10       5       0       0       0       0       0       0     0       0       0       0  
COLLCR3R 23           0 0 137.95       7       3       0       0       0       0       0       0     0       0       0       0  
TRENTO3  24           0 2  136.9      13       0       0  15.282   10000  -10000     300    -300     0       0       0       0  
TANNRS3K 25           0 2  144.9       0       0    -220 -49.798   10000  -10000      47    -140     0       0       0       0  
TANNRS3A 26           0 2 140.07       0       0    -314  -9.905   10000  -10000    1000   -1000     0       0       0       0  
MADISO3  27           0 2 133.58      71      13       0  -2.831   10000  -10000     300    -300     0       0       0       0  
28    3  28           0 0  132.7      17       7       0       0       0       0       0       0     0       0       0       0  
29    3  29           0 0 132.92      24       4       0       0       0       0       0       0     0       0       0       0  
SORENS3A 30           0 0    136       0       0       0       0       0       0       0       0     0       0       0       0  
DEERCR3  31           0 2 133.45      43      27      -7 -31.976   10000  -10000     300    -300     0       0       0       0  
DELAWA3E 32           0 2 132.89      59      23       0      14   10000  -10000      14     -42     0       0       0       0  
HAVILA3D 33           0 0 134.08      23       9       0       0       0       0       0       0     0       0       0       0  
ROCKHI3L 34           0 2 135.79      59      26       0       8   10000  -10000       8     -24     0       0       0       0  
WESTLI3A 35           0 0 135.33      33       9       0       0       0       0       0       0     0       0       0       0  
STERLI3G 36           0 2 135.24      31      17       0   1.252   10000  -10000       8     -24     0       0       0       0  
EASTLI3A 37           0 0 136.89       0       0       0       0       0       0       0       0     0       0       0       0  
EASTLI3B 38           0 0 132.75       0       0       0       0       0       0       0       0     0       0       0       0  
NWLIBR3Y 39           0 0 133.92      27      11       0       0       0       0       0       0     0       0       0       0  
WEST E3D 40           0 2 133.86      66      23       0 -26.886   10000  -10000     300    -300     0       0       0       0  
S.TIFF3N 41           0 0 133.42      37      10       0       0       0       0       0       0     0       0       0       0  
42    3  42           0 2 135.93      96      23       0 -41.004   10000  -10000     300    -300     0       0       0       0  
S.KENT3N 43           0 0 135.03      18       7       0       0       0       0       0       0     0       0       0       0  
WMVERN3N 44           0 0 135.93      16       8       0       0       0       0       0       0     0       0       0       0  
N.NEWA3K 45           0 0 136.16      53      22       0       0       0       0       0       0     0       0       0       0  
W.LANC3T 46           0 2 138.69      28      10     -19   5.231   10000  -10000     100    -100     0       0       0       0  
CROOKS3L 47           0 0 140.35      34       0       0       0       0       0       0       0     0       0       0       0  
ZANESV3L 48           0 0 140.85      20      11       0       0       0       0       0       0     0       0       0       0  
49    3  49           0 2 141.45      87      30    -204 -115.65   10000  -10000      85    -210     0       0       0       0  
WCAMBR3G 50           0 0 138.15      17       4       0       0       0       0       0       0     0       0       0       0  
NEWCMR3T 51           0 0 133.43      17       8       0       0       0       0       0       0     0       0       0       0  
SCOSHO3T 52           0 0 132.04      18       5       0       0       0       0       0       0     0       0       0       0  
WOOSTE3  53           0 0 130.55      23      11       0       0       0       0       0       0     0       0       0       0  
54    3  54           0 2 131.79     113      32     -48  -3.902   10000  -10000     300    -300     0       0       0       0  
WAGENH3S 55           0 2 131.38      63      22       0  -4.664   10000  -10000       8     -23     0       0       0       0  
SUNNYS3E 56           0 2 131.65      84      18       0   2.286   10000  -10000       8     -15     0       0       0       0  
WNWPHI31 57           0 0 133.94      12       3       0       0       0       0       0       0     0       0       0       0  
WNWPHI32 58           0 0 132.35      12       3       0       0       0       0       0       0     0       0       0       0  
59    3  59           0 2 135.93     277     113    -155 -76.834   10000  -10000      60    -180     0       0       0       0  
SWKAMM3R 60           0 0 137.06      78       3       0       0       0       0       0       0     0       0       0       0  
W.KAMM3R 61           0 2 137.31       0       0    -160  40.394   10000  -10000     100    -300     0       0       0       0  
NATRIU3  62           0 2 137.72      77      14       0  -1.259   10000  -10000      20     -20     0       0       0       0  
63    3  63           0 0 133.69       0       0       0       0       0       0       0       0     0       0       0       0  
64    3  64           0 0 135.76       0       0       0       0       0       0       0       0     0       0       0       0  
MUSKNG3M 65           0 2 138.69       0       0    -391 -80.812   10000  -10000      67    -200     0       0       0       0  
MUSKNG3A 66           0 2  144.9      39      18    -392   1.951   10000  -10000      67    -200     0       0       0       0  
SUMMER3L 67           0 0 140.72      28       7       0       0       0       0       0       0     0       0       0       0  
68    3  68           0 0 138.45       0       0       0       0       0       0       0       0     0       0       0       0  
69    3  69           0 3 142.83       0       0 -513.39  82.378   10000  -10000     300    -300     0       0       0       0  
PORTSM3H 70           0 2 135.79      66      20       0  -9.664   10000  -10000      10     -32     0       0       0       0  
NPORTS3T 71           0 0 136.18       0       0       0       0       0       0       0       0     0       0       0       0  
HILLSB3O 72           0 2 135.24      12       0       0   11.13   10000  -10000     100    -100     0       0       0       0  
SARGEN3S 73           0 2 136.76       6       0       0  -9.651   10000  -10000     100    -100     0       0       0       0  
BELLEF3T 74           0 2  132.2      68      27       0   5.628   10000  -10000       6      -9     0       0       0       0  
STHPOI3T 75           0 0 133.49      47      11       0       0       0       0       0       0     0       0       0       0  
76    3  76           0 2 130.13      68      36       0  -5.269   10000  -10000       8     -23     0       0       0       0  
77    3  77           0 2 138.83      61      28       0 -11.943   10000  -10000      20     -70     0       0       0       0  
CHEMIC3L 78           0 0 138.47      71      26       0       0       0       0       0       0     0       0       0       0  
CAPITL3L 79           0 0 139.27      39      32       0       0       0       0       0       0     0       0       0       0  
CABINC3K 80           0 2 143.52     130      26    -477 -105.05   10000  -10000     165    -280     0       0       0       0  
KANAWH3  81           0 0 137.56       0       0       0       0       0       0       0       0     0       0       0       0  
82    3  82           0 0 136.45      54      27       0       0       0       0       0       0     0       0       0       0  
83    3  83           0 0 135.86      20      10       0       0       0       0       0       0     0       0       0       0  
BETSYL3E 84           0 0 135.21      11       7       0       0       0       0       0       0     0       0       0       0  
BEAVER3K 85           0 2 135.93      24      15       0   5.768   10000  -10000       8     -23     0       0       0       0  
86    3  86           0 0 136.16      21      10       0       0       0       0       0       0     0       0       0       0  
PINEVL3E 87           0 2 140.07       0       0      -4 -11.022   10000  -10000     100   -1000     0       0       0       0  
FREMON3  88           0 0 136.27      48      10       0       0       0       0       0       0     0       0       0       0  
CLINCH3V 89           0 2 138.69       0       0    -607  11.794   10000  -10000     210    -300     0       0       0       0  
HOLSTO3  90           0 2 135.93     163      42       0   -59.3   10000  -10000     300    -300     0       0       0       0  
HOLSTO3T 91           0 2 135.24      10       0       0  14.847   10000  -10000     100    -100     0       0       0       0  
SALTVL3E 92           0 2 136.62      65      10       0       3   10000  -10000       3      -9     0       0       0       0  
TAZEWE3L 93           0 0 136.19      12       7       0       0       0       0       0       0     0       0       0       0  
SWITCH3K 94           0 0  136.7      30      16       0       0       0       0       0       0     0       0       0       0  
CALDWE3L 95           0 0 135.37      42      31       0       0       0       0       0       0     0       0       0       0  
BAILEY3V 96           0 0 136.99      38      15       0       0       0       0       0       0     0       0       0       0  
SUNDIA3  97           0 0 139.57      15       9       0       0       0       0       0       0     0       0       0       0  
BRADLE3  98           0 0 141.24      34       8       0       0       0       0       0       0     0       0       0       0  
99    3  99           0 2 139.38      42       0       0  17.537   10000  -10000     100    -100     0       0       0       0  
GLEN L3N 100          0 2 140.35      37      18    -252 -110.06   10000  -10000      50    -155     0       0       0       0  
101   3  101          0 0 136.96      22      15       0       0       0       0       0       0     0       0       0       0  
102   3  102          0 0 136.76       5       3       0       0       0       0       0       0     0       0       0       0  
CLAYTO3  103          0 2 139.38      23      16     -40     -40   10000  -10000      15     -40     0       0       0       0  
HANCOC3  104          0 2    134      38      25       0  -5.643   10000  -10000       8     -23     0       0       0       0  
ROANOK3  105          0 2 133.17      31      26       0       8   10000  -10000       8     -23     0       0       0       0  
CLOVER3L 106          0 0 132.73      43      16       0       0       0       0       0       0     0       0       0       0  
REUSEN3  107          0 2 131.38      50      12       0  -5.694   10000  -10000     200    -200     0       0       0       0  
108   3  108          0 0 133.42       2       1       0       0       0       0       0       0     0       0       0       0  
FRANKL3N 109          0 0 133.51       8       3       0       0       0       0       0       0     0       0       0       0  
FIELDA3E 110          0 2 134.27      39      30       0  -4.854   10000  -10000       8     -23     0       0       0       0  
DANRIV3R 111          0 2 135.24       0       0     -36   1.844   10000  -10000     100   -1000     0       0       0       0  
DANVIL3E 112          0 2 134.55      68      13       0 -41.512   10000  -10000     100   -1000     0       0       0       0  
DEER C3K 113          0 2 137.03       6       0       0  -6.323   10000  -10000     100    -200     0       0       0       0  
WMEDFO3D 114          0 0 132.54       8       3       0       0       0       0       0       0     0       0       0       0  
MEDFOR3  115          0 0 132.52      22       7       0       0       0       0       0       0     0       0       0       0  
KYGERC3K 116          0 2 138.69     184       0       0 -51.324   10000  -10000    1000   -1000     0       0       0       0  
117   3  117          0 0 134.39      20       8       0       0       0       0       0       0     0       0       0       0  
WHUNTN3D 118          0 0 131.02      33      15       0       0       0       0       0       0     0       0       0       0  
5_____3Q Fict. shunt  1 0    138       0       0       0       0       0       0       0       0     0       0       0       0  
ROCKHI3Q Fict. shunt  1 0    138       0       0       0       0       0       0       0       0     0       0       0       0  
EASTLI3Q Fict. shunt  1 0    138       0       0       0       0       0       0       0       0     0       0       0       0  
WMVERN3Q Fict. shunt  1 0    138       0       0       0       0       0       0       0       0     0       0       0       0  
N.NEWA3Q Fict. shunt  1 0    138       0       0       0       0       0       0       0       0     0       0       0       0  
W.LANC3Q Fict. shunt  1 0    138       0       0       0       0       0       0       0       0     0       0       0       0  
ZANESV3Q Fict. shunt  1 0    138       0       0       0       0       0       0       0       0     0       0       0       0  
BELLEF3Q Fict. shunt  1 0    138       0       0       0       0       0       0       0       0     0       0       0       0  
CAPITL3Q Fict. shunt  1 0    138       0       0       0       0       0       0       0       0     0       0       0       0  
82____3Q Fict. shunt  1 0    138       0       0       0       0       0       0       0       0     0       0       0       0  
83____3Q Fict. shunt  1 0    138       0       0       0       0       0       0       0       0     0       0       0       0  
105___3Q Fict. shunt  1 0    138       0       0       0       0       0       0       0       0     0       0       0       0  
107___3Q Fict. shunt  1 0    138       0       0       0       0       0       0       0       0     0       0       0       0  
FIELDA3Q Fict. shunt  1 0    138       0       0       0       0       0       0       0       0     0       0       0       0  
##ZXX
##L
RIVERS3E POKAGO3  1 0 5.7703 19.025 133.3753      0 _AC_1_2_CKT_
RIVERS3E HICKRY3K 1 0 2.4567 8.0747  56.8158      0 _AC_1_3_CKT_
POKAGO3  TWINBR3H 1 0 3.5612 11.731 82.54568      0 _AC_2_12_CKT
HICKRY3K 5     3  1 0 4.5896 20.568 149.1283      0 _AC_3_5_CKT_
HICKRY3K TWINBR3H 1 0 9.2173  30.47 213.1905      0 _AC_3_12_CKT
NWCARL3L 5     3  1 0 .33517 1.5197 11.02709      0 _AC_4_5_CKT_
NWCARL3L SOUTHB3D 1 0 3.9802 13.102 91.78745      0 _AC_4_11_CKT
5     3  KANKAK3E 1 0 2.2662 10.284 74.87922      0 _AC_5_6_CKT_
5     3  SOUTHB3D 1 0 3.8659 12.988 91.26234      0 _AC_5_11_CKT
KANKAK3E JACKSN3D 1 0 .87412 3.9612 28.88049      0 _AC_6_7_CKT_
JACKSN3D TWINBR3H 1 0 1.6416  6.475 45.89372      0 _AC_7_12_CKT
8     3  BEQUIN3  1 0 .46467 5.8084 6101.659      0 _AC_8_9_CKT_
8     3  SORENS3A 1 0  .8208 9.5982 2699.013      0 _AC_8_30_CKT
BEQUIN3  10    3  1 0 .49134 6.1322 6458.727      0 _AC_9_10_CKT
SOUTHB3D TWINBR3H 1 0 1.1331 3.7326 26.36001      0 _AC_11_12_CK
SOUTHB3D CONCOR3  1 0 4.2373 13.921 98.50871      0 _AC_11_13_CK
TWINBR3H GOSHEN3T 1 0 4.0945 13.464 95.35812      0 _AC_12_14_CK
TWINBR3H 16    3  1 0 4.0373 15.883 112.3714      0 _AC_12_16_CK
TWINBR3H 117   3  1 0 6.2655 26.662 187.9857      0 _AC_12_117_C
CONCOR3  FTWAYN3  1 0 14.169 46.544 329.1325      0 _AC_13_15_CK
GOSHEN3T FTWAYN3  1 0 11.331 37.136 263.6001      0 _AC_14_15_CK
FTWAYN3  SORENS3N 1 0 2.5138 8.3222 233.1443      0 _AC_15_17_CK
FTWAYN3  LINCOL3  1 0 2.2853 7.5033 53.03507      0 _AC_15_19_CK
FTWAYN3  HAVILA3D 1 0 7.2367 23.691 167.7169      0 _AC_15_33_CK
16    3  SORENS3N 1 0  8.646 34.298 244.6965      0 _AC_16_17_CK
SORENS3N MCKINL3Y 1 0 2.3424 9.6172 68.15795      0 _AC_17_18_CK
SORENS3N DEERCR3  1 0 9.0269 29.766 209.5148      0 _AC_17_31_CK
SORENS3N DEER C3K 1 0 1.7387 5.7322 40.32766      0 _AC_17_113_C
MCKINL3Y LINCOL3  1 0  2.131 9.3887  59.9664      0 _AC_18_19_CK
LINCOL3  20    3  1 0 4.7991 22.281 156.4797      0 _AC_19_20_CK
LINCOL3  ROCKHI3L 1 0 14.321 47.039  331.863      0 _AC_19_34_CK
20    3  21    3  1 0 3.4851 16.168 113.4215      0 _AC_20_21_CK
21    3  RANDOL3H 1 0 3.9802 18.473 129.1745      0 _AC_21_22_CK
RANDOL3H COLLCR3R 1 0  6.513  30.28 212.1403      0 _AC_22_23_CK
COLLCR3R TRENTO3  1 0 2.5709 9.3696 261.4997      0 _AC_23_24_CK
COLLCR3R TANNRS3K 1 0 2.9709 15.235 453.6862      0 _AC_23_25_CK
COLLCR3R DELAWA3E 1 0 6.0369 21.958  615.942      0 _AC_23_32_CK
TRENTO3  PORTSM3H 1 0 .42087 78.366 535.4968      0 _AC_24_70_CK
TRENTO3  HILLSB3O 1 0 9.2935 37.326 256.2487      0 _AC_24_72_CK
TANNRS3K MADISO3  1 0  6.056 31.042  926.276      0 _AC_25_27_CK
TANNRS3A SORENS3A 1 0 1.5216 16.378 4767.906      0 _AC_26_30_CK
MADISO3  28    3  1 0 3.6431 16.283 113.4215      0 _AC_27_28_CK
MADISO3  DELAWA3E 1 0 4.3611 14.378 101.1342      0 _AC_27_32_CK
MADISO3  MEDFOR3  1 0 3.1232 14.112 103.5497      0 _AC_27_115_C
28    3  29    3  1 0 4.5134 17.958 124.9737      0 _AC_28_29_CK
29    3  DEERCR3  1 0 2.0568 6.3036 43.58328      0 _AC_29_31_CK
SORENS3A EASTLI3B 1 0 .88364 10.284 2215.921      0 _AC_30_38_CK
DEERCR3  DELAWA3E 1 0 5.6751 18.758    131.8      0 _AC_31_32_CK
DELAWA3E DEER C3K 1 0 11.712 38.659 272.0017      0 _AC_32_113_C
DELAWA3E WMEDFO3D 1 0 2.5709 11.655 85.48624      0 _AC_32_114_C
HAVILA3D EASTLI3A 1 0 7.9033 27.042 192.1865      0 _AC_33_37_CK
ROCKHI3L STERLI3G 1 0 1.6587 5.1038 29.82567      0 _AC_34_36_CK
ROCKHI3L EASTLI3A 1 0 .48753 1.7901 51.66982      0 _AC_34_37_CK
ROCKHI3L S.KENT3N 1 0 7.8652 32.013 221.9072      0 _AC_34_43_CK
WESTLI3A STERLI3G 1 0 .42659 1.9425 14.07267      0 _AC_35_36_CK
WESTLI3A EASTLI3A 1 0 2.0948 9.4649 69.20815      0 _AC_35_37_CK
EASTLI3A NWLIBR3Y 1 0 6.1131 20.187 141.7769      0 _AC_37_39_CK
EASTLI3A WEST E3D 1 0 11.293 31.994 220.5419      0 _AC_37_40_CK
EASTLI3B MUSKNG3M 1 0 1.7159 18.777 5492.543      0 _AC_38_65_CK
NWLIBR3Y WEST E3D 1 0 3.5041 11.522 81.49548      0 _AC_39_40_CK
WEST E3D S.TIFF3N 1 0 2.7614 9.2744 64.16719      0 _AC_40_41_CK
WEST E3D 42    3  1 0 10.569 34.851 244.6965      0 _AC_40_42_CK
S.TIFF3N 42    3  1 0  7.808 25.709 180.6343      0 _AC_41_42_CK
42    3  49    3  1 0 13.616 61.512 451.5858      0 _AC_42_49_CK
S.KENT3N WMVERN3N 1 0 11.579 46.734 318.6306      0 _AC_43_44_CK
WMVERN3N N.NEWA3K 1 0 4.2659 17.159 117.6223      0 _AC_44_45_CK
N.NEWA3K W.LANC3T 1 0 7.6176 25.824 174.3331      0 _AC_45_46_CK
N.NEWA3K 49    3  1 0 13.026 35.422 233.1443      0 _AC_45_49_CK
W.LANC3T CROOKS3L 1 0 7.2367 24.186 165.9315      0 _AC_46_47_CK
W.LANC3T ZANESV3L 1 0 11.445 35.993 247.8471      0 _AC_46_48_CK
CROOKS3L 49    3  1 0 3.6374 11.903   84.226      0 _AC_47_49_CK
CROOKS3L 69    3  1 0 16.073 52.904 372.4007      0 _AC_47_69_CK
ZANESV3L 49    3  1 0 3.4089 9.6172 66.05755      0 _AC_48_49_CK
49    3  WCAMBR3G 1 0 5.0847 14.321 98.40369      0 _AC_49_50_CK
49    3  NEWCMR3T 1 0 9.2554  26.09 179.5841      0 _AC_49_51_CK
49    3  54    3  1 0 16.549 55.418 383.3228      0 _AC_49_54_CK
49    3  MUSKNG3A 1 0 3.4279 17.501 130.2247      0 _AC_49_66_CK
49    3  69    3  1 0 18.758 61.703 434.7826      0 _AC_49_69_CK
WCAMBR3G WNWPHI31 1 0 9.0269 25.519 174.3331      0 _AC_50_57_CK
NEWCMR3T SCOSHO3T 1 0 3.8659 11.198 73.30392      0 _AC_51_52_CK
NEWCMR3T WNWPHI32 1 0 4.8562 13.693 93.88784      0 _AC_51_58_CK
SCOSHO3T WOOSTE3  1 0 7.7128 31.137 213.0855      0 _AC_52_53_CK
WOOSTE3  54    3  1 0 5.0086 23.234 162.7809      0 _AC_53_54_CK
54    3  WAGENH3S 1 0 3.2184 13.464 106.0701      0 _AC_54_55_CK
54    3  SUNNYS3E 1 0 .52371 1.8187  38.4373      0 _AC_54_56_CK
54    3  59    3  1 0 9.5791 43.668 314.0097      0 _AC_54_59_CK
WAGENH3S SUNNYS3E 1 0 .92935 2.8756 19.63873      0 _AC_55_56_CK
WAGENH3S 59    3  1 0  9.025 41.097 296.4713      0 _AC_55_59_CK
SUNNYS3E WNWPHI31 1 0 6.5321 18.397 127.0742      0 _AC_56_57_CK
SUNNYS3E WNWPHI32 1 0 6.5321 18.397 127.0742      0 _AC_56_58_CK
SUNNYS3E 59    3  1 0 15.292 45.515 281.4535      0 _AC_56_59_CK
59    3  SWKAMM3R 1 0 6.0369 27.614 197.4375      0 _AC_59_60_CK
59    3  W.KAMM3R 1 0 6.2464 28.566 203.7387      0 _AC_59_61_CK
SWKAMM3R W.KAMM3R 1 0 .50276 2.5709 76.45453      0 _AC_60_61_CK
SWKAMM3R NATRIU3  1 0 2.3424 10.684 77.08465      0 _AC_60_62_CK
W.KAMM3R NATRIU3  1 0 1.5692 7.1605 51.45978      0 _AC_61_62_CK
NATRIU3  MUSKNG3A 1 0 9.1792 41.516 303.5077      0 _AC_62_66_CK
NATRIU3  SUMMER3L 1 0 4.9134 22.281 162.7809      0 _AC_62_67_CK
63    3  64    3  2 0 .32756 3.8088 1134.215      0 _AC_63_64_CK
64    3  MUSKNG3M 1 0 .51228 5.7513 1995.379      0 _AC_64_65_CK
MUSKNG3M 68    3  1 0 .26281  3.047 3350.136      0 _AC_65_68_CK
MUSKNG3A SUMMER3L 1 0 4.2659  19.33 140.8318      0 _AC_66_67_CK
68    3  KANAWH3  1 0 .33327 3.8469 4242.806      0 _AC_68_81_CK
68    3  KYGERC3K 1 0 .06475 .77128 861.1636      0 _AC_68_116_C
69    3  PORTSM3H 1 0 5.7132 24.186 640.6217      0 _AC_69_70_CK
69    3  STHPOI3T 1 0 7.7128 23.234 651.1237      0 _AC_69_75_CK
69    3  77    3  1 0 5.8846 19.234 545.0536      0 _AC_69_77_CK
PORTSM3H NPORTS3T 1 0 1.6797 6.7606 46.10376      0 _AC_70_71_CK
PORTSM3H BELLEF3T 1 0 7.6366 25.195 176.8536      0 _AC_70_74_CK
PORTSM3H STHPOI3T 1 0 8.1508 26.852 189.0359      0 _AC_70_75_CK
NPORTS3T HILLSB3O 1 0 8.4936 34.279 233.3543      0 _AC_71_72_CK
NPORTS3T SARGEN3S 1 0 1.6492  8.646 61.85675      0 _AC_71_73_CK
BELLEF3T STHPOI3T 1 0 2.3424 7.7319 54.29531      0 _AC_74_75_CK
STHPOI3T 77    3  1 0 11.445 38.069 261.3947      0 _AC_75_77_CK
STHPOI3T WHUNTN3D 1 0 2.7614 9.1602 62.90696      0 _AC_75_118_C
76    3  77    3  1 0 8.4555 28.185 193.2367      0 _AC_76_77_CK
76    3  WHUNTN3D 1 0 3.1232  10.36 71.20352      0 _AC_76_118_C
77    3  CHEMIC3L 1 0 .71605 2.3615 66.37261      0 _AC_77_78_CK
77    3  CABINC3K 1 0 5.5989 19.996 119.7227      0 _AC_77_80_CK
77    3  82    3  1 0 5.6751 16.245 429.2166      0 _AC_77_82_CK
CHEMIC3L CAPITL3L 1 0 1.0398 4.6467 34.02646      0 _AC_78_79_CK
CAPITL3L CABINC3K 1 0 2.9709 13.407 98.19366      0 _AC_79_80_CK
CABINC3K BAILEY3V 1 0 6.7797  34.66 259.3993      0 _AC_80_96_CK
CABINC3K SUNDIA3  1 0 3.4851 17.787 133.3753      0 _AC_80_97_CK
CABINC3K BRADLE3  1 0 4.5325 20.568 150.1785      0 _AC_80_98_CK
CABINC3K 99    3  1 0  8.646 39.231 286.7045      0 _AC_80_99_CK
82    3  83    3  1 0 2.1329 6.9796 199.3279      0 _AC_82_83_CK
82    3  BAILEY3V 1 0 3.0851 10.093 285.6543      0 _AC_82_96_CK
83    3  BETSYL3E 1 0 11.903 25.138 135.4757      0 _AC_83_84_CK
83    3  BEAVER3K 1 0 8.1889 28.185 182.7347      0 _AC_83_85_CK
BETSYL3E BEAVER3K 1 0 5.7513 12.207 64.79731      0 _AC_84_85_CK
BEAVER3K 86    3  1 0 6.6654 23.424 144.9275      0 _AC_85_86_CK
BEAVER3K FREMON3  1 0 3.8088 19.425 144.9275      0 _AC_85_88_CK
BEAVER3K CLINCH3V 1 0 4.5515 32.946 246.7969      0 _AC_85_89_CK
86    3  PINEVL3E 1 0 5.3856 39.497 233.6694      0 _AC_86_87_CK
FREMON3  CLINCH3V 1 0 2.6471 13.559 101.5543      0 _AC_88_89_CK
CLINCH3V HOLSTO3  1 0 4.5325 18.987 556.6058      0 _AC_89_90_CK
CLINCH3V SALTVL3E 1 0 7.4843 30.109 217.3913      0 _AC_89_92_CK
HOLSTO3  HOLSTO3T 1 0 4.8372 15.921 112.3714      0 _AC_90_91_CK
HOLSTO3T SALTVL3E 1 0   7.37 24.224 171.6026      0 _AC_91_92_CK
SALTVL3E TAZEWE3L 1 0 4.9134 16.149 114.4717      0 _AC_92_93_CK
SALTVL3E SWITCH3K 1 0 9.1602  30.09 213.1905      0 _AC_92_94_CK
SALTVL3E GLEN L3N 1 0 12.341  56.18 247.8471      0 _AC_92_100_C
SALTVL3E 102   3  1 0 2.3424 10.646  76.8746      0 _AC_92_102_C
TAZEWE3L SWITCH3K 1 0 4.2468  13.94 98.50871      0 _AC_93_94_CK
SWITCH3K CALDWE3L 1 0 2.5138 8.2651 58.28608      0 _AC_94_95_CK
SWITCH3K BAILEY3V 1 0 5.1228 16.549 120.7729      0 _AC_94_96_CK
SWITCH3K GLEN L3N 1 0 3.3898 11.046 317.1603      0 _AC_94_100_C
CALDWE3L BAILEY3V 1 0 3.2565 10.417  77.3997      0 _AC_95_96_CK
BAILEY3V SUNDIA3  1 0 3.2946 16.854 126.0239      0 _AC_96_97_CK
BRADLE3  GLEN L3N 1 0 7.5605 34.089 249.9475      0 _AC_98_100_C
99    3  GLEN L3N 1 0 3.4279 15.483 113.4215      0 _AC_99_100_C
GLEN L3N 101   3  1 0 5.2752 24.034 172.2327      0 _AC_100_101_
GLEN L3N CLAYTO3  1 0  3.047 9.9981 281.4535      0 _AC_100_103_
GLEN L3N HANCOC3  1 0 8.5888  38.85  284.079      0 _AC_100_104_
GLEN L3N CLOVER3L 1 0 11.522 43.611 325.5619      0 _AC_100_106_
101   3  102   3  1 0 4.6848 21.329 154.3793      0 _AC_101_102_
CLAYTO3  HANCOC3  1 0 8.8745 30.166 213.7156      0 _AC_103_104_
CLAYTO3  ROANOK3  1 0 10.189 30.946 214.2407      0 _AC_103_105_
CLAYTO3  FIELDA3E 1 0 7.4386 34.527  242.071      0 _AC_103_110_
HANCOC3  ROANOK3  1 0  1.893 7.1986 51.77483      0 _AC_104_105_
ROANOK3  CLOVER3L 1 0 2.6662 10.417 75.29931      0 _AC_105_106_
ROANOK3  REUSEN3  1 0 10.093 34.851 247.8471      0 _AC_105_107_
ROANOK3  108   3  1 0 4.9705 13.388  96.8284      0 _AC_105_108_
CLOVER3L REUSEN3  1 0 10.093 34.851 247.8471      0 _AC_106_107_
108   3  FRANKL3N 1 0 1.9996 5.4847 39.90759      0 _AC_108_109_
FRANKL3N FIELDA3E 1 0 5.2942 14.512 106.0701      0 _AC_109_110_
FIELDA3E DANRIV3R 1 0 4.1897 14.378   105.02      0 _AC_110_111_
FIELDA3E DANVIL3E 1 0 4.7039 12.188 325.5619      0 _AC_110_112_
WMEDFO3D MEDFOR3  1 0 .43801 1.9806 14.49275      0 _AC_114_115_
5     3  5_____3Q 1 1      0   0.05  -2100.4        
ROCKHI3L ROCKHI3Q 1 1      0   0.05 735.1396        
EASTLI3A EASTLI3Q 1 1      0   0.05 -1312.75        
WMVERN3N WMVERN3Q 1 1      0   0.05 525.0997        
N.NEWA3K N.NEWA3Q 1 1      0   0.05 525.0997        
W.LANC3T W.LANC3Q 1 1      0   0.05 525.0997        
ZANESV3L ZANESV3Q 1 1      0   0.05 787.6497        
BELLEF3T BELLEF3Q 1 1      0   0.05 630.1197        
CAPITL3L CAPITL3Q 1 1      0   0.05 1050.199        
82    3  82____3Q 1 1      0   0.05 1050.199        
83    3  83____3Q 1 1      0   0.05 525.0997        
ROANOK3  105___3Q 1 1      0   0.05 1050.199        
REUSEN3  107___3Q 1 1      0   0.05 315.0598        
FIELDA3E FIELDA3Q 1 1      0   0.05 315.0598        
##T
8     3  5     3  1 0 135.9   138   100      0 4.9334        0      0      0 _PT_8_5_CKT_
SORENS3A SORENS3N 1 0 132.5   138   100      0 6.8098        0      0      0 _PT_30_17_CK
TANNRS3A TANNRS3K 1 0 132.5   138   100      0 6.7045        0      0      0 _PT_26_25_CK
EASTLI3B EASTLI3A 1 0   129   138   100      0 6.2433        0      0      0 _PT_38_37_CK
63    3  59    3  1 0 132.5   138   100      0 6.7747        0      0      0 _PT_63_59_CK
64    3  W.KAMM3R 1 0 135.9   138   100      0 4.9518        0      0      0 _PT_64_61_CK
MUSKNG3M MUSKNG3A 1 0   129   138   100      0   6.16        0      0      0 _PT_65_66_CK
68    3  69    3  1 0   129   138   100      0   6.16        0      0      0 _PT_68_69_CK
KANAWH3  CABINC3K 1 0   129   138   100      0   6.16        0      0      0 _PT_81_80_CK
##R
##TT
##E
